data_image0
_cell_length_a       6.48841
_cell_length_b       10.2591
_cell_length_c       40.7816
_cell_angle_alpha    90
_cell_angle_beta     90
_cell_angle_gamma    71.5651

_symmetry_space_group_name_H-M    "P 1"
_symmetry_int_tables_number       1

loop_
  _symmetry_equiv_pos_as_xyz
  'x, y, z'

loop_
  _atom_site_label
  _atom_site_occupancy
  _atom_site_fract_x
  _atom_site_fract_y
  _atom_site_fract_z
  _atom_site_thermal_displace_type
  _atom_site_B_iso_or_equiv
  _atom_site_type_symbol
  C1       1.0000 0.55556  0.55556  0.21616  Biso   1.000  C 
  C2       1.0000 0.44444  0.44444  0.21616  Biso   1.000  C 
  C3       1.0000 0.44444  0.19444  0.21616  Biso   1.000  C 
  C4       1.0000 0.44444  0.94444  0.21616  Biso   1.000  C 
  C5       1.0000 0.44444  0.69444  0.21616  Biso   1.000  C 
  C6       1.0000 0.11111  0.36111  0.21616  Biso   1.000  C 
  C7       1.0000 0.11111  0.11111  0.21616  Biso   1.000  C 
  C8       1.0000 0.11111  0.86111  0.21616  Biso   1.000  C 
  C9       1.0000 0.11111  0.61111  0.21616  Biso   1.000  C 
  C10      1.0000 0.77778  0.27778  0.21616  Biso   1.000  C 
  C11      1.0000 0.77778  0.02778  0.21616  Biso   1.000  C 
  C12      1.0000 0.77778  0.77778  0.21616  Biso   1.000  C 
  C13      1.0000 0.55556  0.80556  0.21616  Biso   1.000  C 
  C14      1.0000 0.22222  0.47222  0.21616  Biso   1.000  C 
  C15      1.0000 0.22222  0.22222  0.21616  Biso   1.000  C 
  C16      1.0000 0.22222  0.97222  0.21616  Biso   1.000  C 
  C17      1.0000 0.22222  0.72222  0.21616  Biso   1.000  C 
  C18      1.0000 0.88889  0.38889  0.21616  Biso   1.000  C 
  C19      1.0000 0.88889  0.13889  0.21616  Biso   1.000  C 
  C20      1.0000 0.88889  0.88889  0.21616  Biso   1.000  C 
  C21      1.0000 0.88889  0.63889  0.21616  Biso   1.000  C 
  C22      1.0000 0.55556  0.30556  0.21616  Biso   1.000  C 
  C23      1.0000 0.55556  0.05556  0.21616  Biso   1.000  C 
  C24      1.0000 0.77778  0.52778  0.21616  Biso   1.000  C 
  Ga1      1.0000 0.70833  0.83333  0.71138  Biso   1.000  Ga
  Ga2      1.0000 0.37500  0.50000  0.82382  Biso   1.000  Ga
  Ga3      1.0000 0.04167  0.16667  0.82382  Biso   1.000  Ga
  Ga4      1.0000 0.70833  0.83333  0.82382  Biso   1.000  Ga
  Ga5      1.0000 0.54167  0.16667  0.48649  Biso   1.000  Ga
  Ga6      1.0000 0.20833  0.83333  0.37405  Biso   1.000  Ga
  Ga7      1.0000 0.87500  0.50000  0.37405  Biso   1.000  Ga
  Ga8      1.0000 0.04167  0.16667  0.71138  Biso   1.000  Ga
  Ga9      1.0000 0.54167  0.16667  0.37405  Biso   1.000  Ga
  Ga10     1.0000 0.37500  0.50000  0.71138  Biso   1.000  Ga
  Ga11     1.0000 0.04167  0.16667  0.48649  Biso   1.000  Ga
  Ga12     1.0000 0.04167  0.16667  0.59894  Biso   1.000  Ga
  Ga13     1.0000 0.37500  0.50000  0.59894  Biso   1.000  Ga
  Ga14     1.0000 0.70833  0.83333  0.48649  Biso   1.000  Ga
  Ga15     1.0000 0.20833  0.83333  0.48649  Biso   1.000  Ga
  Ga16     1.0000 0.37500  0.50000  0.48649  Biso   1.000  Ga
  Ga17     1.0000 0.70833  0.83333  0.37405  Biso   1.000  Ga
  Ga18     1.0000 0.04167  0.16667  0.37405  Biso   1.000  Ga
  Ga19     1.0000 0.37500  0.50000  0.37405  Biso   1.000  Ga
  Ga20     1.0000 0.04167  0.66667  0.76760  Biso   1.000  Ga
  Ga21     1.0000 0.37500  0.00000  0.76760  Biso   1.000  Ga
  Ga22     1.0000 0.70833  0.83333  0.59894  Biso   1.000  Ga
  Ga23     1.0000 0.87500  0.50000  0.48649  Biso   1.000  Ga
  Ga24     1.0000 0.20833  0.83333  0.71138  Biso   1.000  Ga
  Ga25     1.0000 0.20833  0.83333  0.59894  Biso   1.000  Ga
  Ga26     1.0000 0.54167  0.66667  0.76760  Biso   1.000  Ga
  Ga27     1.0000 0.87500  0.00000  0.76760  Biso   1.000  Ga
  Ga28     1.0000 0.20833  0.33333  0.76760  Biso   1.000  Ga
  Ga29     1.0000 0.54167  0.66667  0.65515  Biso   1.000  Ga
  Ga30     1.0000 0.87500  0.00000  0.65515  Biso   1.000  Ga
  Ga31     1.0000 0.20833  0.33333  0.65515  Biso   1.000  Ga
  Ga32     1.0000 0.54167  0.66667  0.54272  Biso   1.000  Ga
  Ga33     1.0000 0.87500  0.00000  0.54272  Biso   1.000  Ga
  Ga34     1.0000 0.20833  0.33333  0.54272  Biso   1.000  Ga
  Ga35     1.0000 0.54167  0.66667  0.43027  Biso   1.000  Ga
  Ga36     1.0000 0.87500  0.00000  0.43027  Biso   1.000  Ga
  Ga37     1.0000 0.20833  0.33333  0.43027  Biso   1.000  Ga
  Ga38     1.0000 0.70833  0.33333  0.76760  Biso   1.000  Ga
  Ga39     1.0000 0.87500  0.00000  0.31783  Biso   1.000  Ga
  Ga40     1.0000 0.20833  0.33333  0.31783  Biso   1.000  Ga
  Ga41     1.0000 0.87500  0.50000  0.82382  Biso   1.000  Ga
  Ga42     1.0000 0.20833  0.83333  0.82382  Biso   1.000  Ga
  Ga43     1.0000 0.54167  0.16667  0.82382  Biso   1.000  Ga
  Ga44     1.0000 0.87500  0.50000  0.71138  Biso   1.000  Ga
  Ga45     1.0000 0.54167  0.16667  0.71138  Biso   1.000  Ga
  Ga46     1.0000 0.87500  0.50000  0.59894  Biso   1.000  Ga
  Ga47     1.0000 0.54167  0.16667  0.59894  Biso   1.000  Ga
  Ga48     1.0000 0.54167  0.66667  0.31783  Biso   1.000  Ga
  Ga49     1.0000 0.04167  0.66667  0.65515  Biso   1.000  Ga
  Ga50     1.0000 0.70833  0.33333  0.65515  Biso   1.000  Ga
  Ga51     1.0000 0.04167  0.66667  0.54272  Biso   1.000  Ga
  Ga52     1.0000 0.37500  0.00000  0.54272  Biso   1.000  Ga
  Ga53     1.0000 0.70833  0.33333  0.54272  Biso   1.000  Ga
  Ga54     1.0000 0.04167  0.66667  0.43027  Biso   1.000  Ga
  Ga55     1.0000 0.37500  0.00000  0.43027  Biso   1.000  Ga
  Ga56     1.0000 0.70833  0.33333  0.43027  Biso   1.000  Ga
  Ga57     1.0000 0.04167  0.66667  0.31783  Biso   1.000  Ga
  Ga58     1.0000 0.37500  0.00000  0.31783  Biso   1.000  Ga
  Ga59     1.0000 0.70833  0.33333  0.31783  Biso   1.000  Ga
  Ga60     1.0000 0.37500  0.00000  0.65515  Biso   1.000  Ga
  N1       1.0000 0.29167  0.66667  0.34594  Biso   1.000  N 
  N2       1.0000 0.95833  0.33333  0.45838  Biso   1.000  N 
  N3       1.0000 0.62500  0.00000  0.45838  Biso   1.000  N 
  N4       1.0000 0.29167  0.66667  0.45838  Biso   1.000  N 
  N5       1.0000 0.95833  0.33333  0.57082  Biso   1.000  N 
  N6       1.0000 0.29167  0.66667  0.68327  Biso   1.000  N 
  N7       1.0000 0.29167  0.66667  0.57082  Biso   1.000  N 
  N8       1.0000 0.95833  0.33333  0.68327  Biso   1.000  N 
  N9       1.0000 0.62500  0.00000  0.68327  Biso   1.000  N 
  N10      1.0000 0.62500  0.00000  0.34594  Biso   1.000  N 
  N11      1.0000 0.95833  0.33333  0.79570  Biso   1.000  N 
  N12      1.0000 0.62500  0.00000  0.57082  Biso   1.000  N 
  N13      1.0000 0.95833  0.33333  0.34594  Biso   1.000  N 
  N14      1.0000 0.12500  0.00000  0.68327  Biso   1.000  N 
  N15      1.0000 0.12500  0.00000  0.79570  Biso   1.000  N 
  N16      1.0000 0.45833  0.33333  0.79570  Biso   1.000  N 
  N17      1.0000 0.79167  0.66667  0.68327  Biso   1.000  N 
  N18      1.0000 0.62500  0.00000  0.79570  Biso   1.000  N 
  N19      1.0000 0.45833  0.33333  0.68327  Biso   1.000  N 
  N20      1.0000 0.79167  0.66667  0.57082  Biso   1.000  N 
  N21      1.0000 0.12500  0.00000  0.57082  Biso   1.000  N 
  N22      1.0000 0.45833  0.33333  0.57082  Biso   1.000  N 
  N23      1.0000 0.79167  0.66667  0.45838  Biso   1.000  N 
  N24      1.0000 0.12500  0.00000  0.45838  Biso   1.000  N 
  N25      1.0000 0.45833  0.33333  0.45838  Biso   1.000  N 
  N26      1.0000 0.79167  0.66667  0.34594  Biso   1.000  N 
  N27      1.0000 0.12500  0.00000  0.34594  Biso   1.000  N 
  N28      1.0000 0.79167  0.66667  0.79570  Biso   1.000  N 
  N29      1.0000 0.29167  0.66667  0.79570  Biso   1.000  N 
  N30      1.0000 0.95833  0.83333  0.40216  Biso   1.000  N 
  N31      1.0000 0.95833  0.83333  0.28972  Biso   1.000  N 
  N32      1.0000 0.45833  0.83333  0.73949  Biso   1.000  N 
  N33      1.0000 0.79167  0.16667  0.73949  Biso   1.000  N 
  N34      1.0000 0.12500  0.50000  0.73949  Biso   1.000  N 
  N35      1.0000 0.45833  0.83333  0.62705  Biso   1.000  N 
  N36      1.0000 0.79167  0.16667  0.62705  Biso   1.000  N 
  N37      1.0000 0.12500  0.50000  0.62705  Biso   1.000  N 
  N38      1.0000 0.45833  0.83333  0.51460  Biso   1.000  N 
  N39      1.0000 0.79167  0.16667  0.51460  Biso   1.000  N 
  N40      1.0000 0.12500  0.50000  0.51460  Biso   1.000  N 
  N41      1.0000 0.45833  0.83333  0.40216  Biso   1.000  N 
  N42      1.0000 0.79167  0.16667  0.40216  Biso   1.000  N 
  N43      1.0000 0.12500  0.50000  0.40216  Biso   1.000  N 
  N44      1.0000 0.45833  0.83333  0.28972  Biso   1.000  N 
  N45      1.0000 0.79167  0.16667  0.28972  Biso   1.000  N 
  N46      1.0000 0.12500  0.50000  0.28972  Biso   1.000  N 
  N47      1.0000 0.62500  0.50000  0.73949  Biso   1.000  N 
  N48      1.0000 0.95833  0.83333  0.73949  Biso   1.000  N 
  N49      1.0000 0.29167  0.16667  0.73949  Biso   1.000  N 
  N50      1.0000 0.62500  0.50000  0.62705  Biso   1.000  N 
  N51      1.0000 0.95833  0.83333  0.62705  Biso   1.000  N 
  N52      1.0000 0.29167  0.16667  0.62705  Biso   1.000  N 
  N53      1.0000 0.62500  0.50000  0.51460  Biso   1.000  N 
  N54      1.0000 0.95833  0.83333  0.51460  Biso   1.000  N 
  N55      1.0000 0.29167  0.16667  0.51460  Biso   1.000  N 
  N56      1.0000 0.62500  0.50000  0.40216  Biso   1.000  N 
  N57      1.0000 0.29167  0.16667  0.40216  Biso   1.000  N 
  N58      1.0000 0.62500  0.50000  0.28972  Biso   1.000  N 
  N59      1.0000 0.29167  0.16667  0.28972  Biso   1.000  N 
  N60      1.0000 0.45833  0.33333  0.34594  Biso   1.000  N 
