data_image0
_cell_length_a       7.84
_cell_length_b       24.6381
_cell_length_c       6.237
_cell_angle_alpha    90
_cell_angle_beta     90
_cell_angle_gamma    90

_symmetry_space_group_name_H-M    "P 1"
_symmetry_int_tables_number       1

loop_
  _symmetry_equiv_pos_as_xyz
  'x, y, z'

loop_
  _atom_site_label
  _atom_site_occupancy
  _atom_site_fract_x
  _atom_site_fract_y
  _atom_site_fract_z
  _atom_site_thermal_displace_type
  _atom_site_B_iso_or_equiv
  _atom_site_type_symbol
  Nb1      1.0000 0.92180  0.50000  0.56250  Biso   1.000  Nb
  Nb2      1.0000 0.32820  0.50000  0.56250  Biso   1.000  Nb
  Nb3      1.0000 0.42180  0.50000  0.06250  Biso   1.000  Nb
  Nb4      1.0000 0.82820  0.50000  0.06250  Biso   1.000  Nb
  Co1      1.0000 0.62500  0.46562  0.70980  Biso   1.000  Co
  Co2      1.0000 0.62500  0.53438  0.41520  Biso   1.000  Co
  Co3      1.0000 0.12500  0.53438  0.20980  Biso   1.000  Co
  Co4      1.0000 0.12500  0.46562  0.91520  Biso   1.000  Co
  Te1      1.0000 0.87500  0.40588  0.81250  Biso   1.000  Te
  Te2      1.0000 0.87500  0.59412  0.31250  Biso   1.000  Te
  Te3      1.0000 0.37500  0.59412  0.31250  Biso   1.000  Te
  Te4      1.0000 0.37500  0.40588  0.81250  Biso   1.000  Te
  Te5      1.0000 0.12500  0.56601  0.81430  Biso   1.000  Te
  Te6      1.0000 0.12500  0.43399  0.31070  Biso   1.000  Te
  Te7      1.0000 0.62500  0.43399  0.31430  Biso   1.000  Te
  Te8      1.0000 0.62500  0.56601  0.81070  Biso   1.000  Te
