data_image0
_cell_length_a       10.2591
_cell_length_b       10.2591
_cell_length_c       54.488
_cell_angle_alpha    90
_cell_angle_beta     90
_cell_angle_gamma    90

_symmetry_space_group_name_H-M    "P 1"
_symmetry_int_tables_number       1

loop_
  _symmetry_equiv_pos_as_xyz
  'x, y, z'

loop_
  _atom_site_label
  _atom_site_occupancy
  _atom_site_fract_x
  _atom_site_fract_y
  _atom_site_fract_z
  _atom_site_thermal_displace_type
  _atom_site_B_iso_or_equiv
  _atom_site_type_symbol
  Ga1      1.0000 0.22500  0.22500  0.86005  Biso   1.000  Ga
  Ga2      1.0000 0.02500  0.62500  0.52342  Biso   1.000  Ga
  Ga3      1.0000 0.22500  0.22500  0.52342  Biso   1.000  Ga
  Ga4      1.0000 0.42500  0.82500  0.52342  Biso   1.000  Ga
  Ga5      1.0000 0.72500  0.72500  0.86005  Biso   1.000  Ga
  Ga6      1.0000 0.92500  0.32500  0.86005  Biso   1.000  Ga
  Ga7      1.0000 0.62500  0.92500  0.48134  Biso   1.000  Ga
  Ga8      1.0000 0.82500  0.02500  0.52342  Biso   1.000  Ga
  Ga9      1.0000 0.42500  0.32500  0.48134  Biso   1.000  Ga
  Ga10     1.0000 0.02500  0.12500  0.48134  Biso   1.000  Ga
  Ga11     1.0000 0.82500  0.52500  0.48134  Biso   1.000  Ga
  Ga12     1.0000 0.62500  0.92500  0.56550  Biso   1.000  Ga
  Ga13     1.0000 0.42500  0.32500  0.56550  Biso   1.000  Ga
  Ga14     1.0000 0.22500  0.72500  0.56550  Biso   1.000  Ga
  Ga15     1.0000 0.02500  0.12500  0.56550  Biso   1.000  Ga
  Ga16     1.0000 0.22500  0.72500  0.48134  Biso   1.000  Ga
  Ga17     1.0000 0.62500  0.42500  0.52342  Biso   1.000  Ga
  Ga18     1.0000 0.42500  0.82500  0.60758  Biso   1.000  Ga
  Ga19     1.0000 0.22500  0.22500  0.60758  Biso   1.000  Ga
  Ga20     1.0000 0.02500  0.62500  0.86005  Biso   1.000  Ga
  Ga21     1.0000 0.42500  0.82500  0.86005  Biso   1.000  Ga
  Ga22     1.0000 0.62500  0.42500  0.77589  Biso   1.000  Ga
  Ga23     1.0000 0.82500  0.02500  0.77589  Biso   1.000  Ga
  Ga24     1.0000 0.02500  0.62500  0.77589  Biso   1.000  Ga
  Ga25     1.0000 0.22500  0.22500  0.77589  Biso   1.000  Ga
  Ga26     1.0000 0.42500  0.82500  0.77589  Biso   1.000  Ga
  Ga27     1.0000 0.62500  0.42500  0.69174  Biso   1.000  Ga
  Ga28     1.0000 0.82500  0.02500  0.69174  Biso   1.000  Ga
  Ga29     1.0000 0.02500  0.62500  0.69174  Biso   1.000  Ga
  Ga30     1.0000 0.22500  0.22500  0.69174  Biso   1.000  Ga
  Ga31     1.0000 0.42500  0.82500  0.69174  Biso   1.000  Ga
  Ga32     1.0000 0.62500  0.42500  0.60758  Biso   1.000  Ga
  Ga33     1.0000 0.82500  0.02500  0.60758  Biso   1.000  Ga
  Ga34     1.0000 0.02500  0.62500  0.60758  Biso   1.000  Ga
  Ga35     1.0000 0.82500  0.52500  0.56550  Biso   1.000  Ga
  Ga36     1.0000 0.82500  0.02500  0.86005  Biso   1.000  Ga
  Ga37     1.0000 0.62500  0.92500  0.64966  Biso   1.000  Ga
  Ga38     1.0000 0.22500  0.72500  0.64966  Biso   1.000  Ga
  Ga39     1.0000 0.12500  0.92500  0.60758  Biso   1.000  Ga
  Ga40     1.0000 0.92500  0.32500  0.60758  Biso   1.000  Ga
  Ga41     1.0000 0.72500  0.72500  0.60758  Biso   1.000  Ga
  Ga42     1.0000 0.52500  0.12500  0.69174  Biso   1.000  Ga
  Ga43     1.0000 0.32500  0.52500  0.69174  Biso   1.000  Ga
  Ga44     1.0000 0.12500  0.92500  0.69174  Biso   1.000  Ga
  Ga45     1.0000 0.32500  0.52500  0.60758  Biso   1.000  Ga
  Ga46     1.0000 0.92500  0.32500  0.69174  Biso   1.000  Ga
  Ga47     1.0000 0.52500  0.12500  0.77589  Biso   1.000  Ga
  Ga48     1.0000 0.32500  0.52500  0.77589  Biso   1.000  Ga
  Ga49     1.0000 0.12500  0.92500  0.77589  Biso   1.000  Ga
  Ga50     1.0000 0.92500  0.32500  0.77589  Biso   1.000  Ga
  Ga51     1.0000 0.72500  0.72500  0.77589  Biso   1.000  Ga
  Ga52     1.0000 0.52500  0.12500  0.86005  Biso   1.000  Ga
  Ga53     1.0000 0.72500  0.72500  0.69174  Biso   1.000  Ga
  Ga54     1.0000 0.52500  0.12500  0.60758  Biso   1.000  Ga
  Ga55     1.0000 0.72500  0.72500  0.52342  Biso   1.000  Ga
  Ga56     1.0000 0.92500  0.32500  0.52342  Biso   1.000  Ga
  Ga57     1.0000 0.02500  0.12500  0.64966  Biso   1.000  Ga
  Ga58     1.0000 0.82500  0.52500  0.64966  Biso   1.000  Ga
  Ga59     1.0000 0.62500  0.92500  0.73381  Biso   1.000  Ga
  Ga60     1.0000 0.42500  0.32500  0.73381  Biso   1.000  Ga
  Ga61     1.0000 0.22500  0.72500  0.73381  Biso   1.000  Ga
  Ga62     1.0000 0.02500  0.12500  0.73381  Biso   1.000  Ga
  Ga63     1.0000 0.82500  0.52500  0.73381  Biso   1.000  Ga
  Ga64     1.0000 0.62500  0.92500  0.81797  Biso   1.000  Ga
  Ga65     1.0000 0.42500  0.32500  0.81797  Biso   1.000  Ga
  Ga66     1.0000 0.22500  0.72500  0.81797  Biso   1.000  Ga
  Ga67     1.0000 0.02500  0.12500  0.81797  Biso   1.000  Ga
  Ga68     1.0000 0.82500  0.52500  0.81797  Biso   1.000  Ga
  Ga69     1.0000 0.52500  0.12500  0.52342  Biso   1.000  Ga
  Ga70     1.0000 0.32500  0.52500  0.52342  Biso   1.000  Ga
  Ga71     1.0000 0.12500  0.92500  0.52342  Biso   1.000  Ga
  Ga72     1.0000 0.42500  0.32500  0.64966  Biso   1.000  Ga
  Ga73     1.0000 0.62500  0.42500  0.86005  Biso   1.000  Ga
  Ga74     1.0000 0.32500  0.02500  0.48134  Biso   1.000  Ga
  Ga75     1.0000 0.12500  0.42500  0.48134  Biso   1.000  Ga
  Ga76     1.0000 0.32500  0.52500  0.86005  Biso   1.000  Ga
  Ga77     1.0000 0.52500  0.62500  0.81797  Biso   1.000  Ga
  Ga78     1.0000 0.72500  0.22500  0.81797  Biso   1.000  Ga
  Ga79     1.0000 0.92500  0.82500  0.81797  Biso   1.000  Ga
  Ga80     1.0000 0.12500  0.42500  0.81797  Biso   1.000  Ga
  Ga81     1.0000 0.32500  0.02500  0.81797  Biso   1.000  Ga
  Ga82     1.0000 0.52500  0.62500  0.73381  Biso   1.000  Ga
  Ga83     1.0000 0.72500  0.22500  0.73381  Biso   1.000  Ga
  Ga84     1.0000 0.92500  0.82500  0.73381  Biso   1.000  Ga
  Ga85     1.0000 0.12500  0.42500  0.73381  Biso   1.000  Ga
  Ga86     1.0000 0.32500  0.02500  0.73381  Biso   1.000  Ga
  Ga87     1.0000 0.52500  0.62500  0.64966  Biso   1.000  Ga
  Ga88     1.0000 0.12500  0.92500  0.86005  Biso   1.000  Ga
  Ga89     1.0000 0.92500  0.82500  0.64966  Biso   1.000  Ga
  Ga90     1.0000 0.72500  0.22500  0.64966  Biso   1.000  Ga
  Ga91     1.0000 0.72500  0.22500  0.48134  Biso   1.000  Ga
  Ga92     1.0000 0.52500  0.62500  0.48134  Biso   1.000  Ga
  Ga93     1.0000 0.32500  0.02500  0.56550  Biso   1.000  Ga
  Ga94     1.0000 0.12500  0.42500  0.56550  Biso   1.000  Ga
  Ga95     1.0000 0.92500  0.82500  0.48134  Biso   1.000  Ga
  Ga96     1.0000 0.72500  0.22500  0.56550  Biso   1.000  Ga
  Ga97     1.0000 0.52500  0.62500  0.56550  Biso   1.000  Ga
  Ga98     1.0000 0.32500  0.02500  0.64966  Biso   1.000  Ga
  Ga99     1.0000 0.12500  0.42500  0.64966  Biso   1.000  Ga
  Ga100    1.0000 0.92500  0.82500  0.56550  Biso   1.000  Ga
  Hf1      1.0000 0.70833  0.95833  0.36268  Biso   1.000  Hf
  Hf2      1.0000 0.20833  0.45833  0.26979  Biso   1.000  Hf
  Hf3      1.0000 0.20833  0.95833  0.26979  Biso   1.000  Hf
  Hf4      1.0000 0.70833  0.45833  0.26979  Biso   1.000  Hf
  Hf5      1.0000 0.70833  0.95833  0.26979  Biso   1.000  Hf
  Hf6      1.0000 0.20833  0.45833  0.36268  Biso   1.000  Hf
  Hf7      1.0000 0.20833  0.95833  0.36268  Biso   1.000  Hf
  Hf8      1.0000 0.70833  0.45833  0.36268  Biso   1.000  Hf
  Hf9      1.0000 0.70833  0.95833  0.17692  Biso   1.000  Hf
  Hf10     1.0000 0.20833  0.20833  0.31623  Biso   1.000  Hf
  Hf11     1.0000 0.20833  0.70833  0.22335  Biso   1.000  Hf
  Hf12     1.0000 0.70833  0.20833  0.22335  Biso   1.000  Hf
  Hf13     1.0000 0.70833  0.70833  0.22335  Biso   1.000  Hf
  Hf14     1.0000 0.70833  0.45833  0.17692  Biso   1.000  Hf
  Hf15     1.0000 0.20833  0.70833  0.31623  Biso   1.000  Hf
  Hf16     1.0000 0.70833  0.20833  0.31623  Biso   1.000  Hf
  Hf17     1.0000 0.70833  0.70833  0.31623  Biso   1.000  Hf
  Hf18     1.0000 0.20833  0.20833  0.40911  Biso   1.000  Hf
  Hf19     1.0000 0.20833  0.70833  0.40911  Biso   1.000  Hf
  Hf20     1.0000 0.70833  0.20833  0.40911  Biso   1.000  Hf
  Hf21     1.0000 0.70833  0.70833  0.40911  Biso   1.000  Hf
  Hf22     1.0000 0.20833  0.20833  0.22335  Biso   1.000  Hf
  Hf23     1.0000 0.20833  0.95833  0.17692  Biso   1.000  Hf
  Hf24     1.0000 0.95833  0.70833  0.26979  Biso   1.000  Hf
  Hf25     1.0000 0.95833  0.70833  0.36268  Biso   1.000  Hf
  Hf26     1.0000 0.45833  0.45833  0.22335  Biso   1.000  Hf
  Hf27     1.0000 0.45833  0.95833  0.22335  Biso   1.000  Hf
  Hf28     1.0000 0.95833  0.45833  0.22335  Biso   1.000  Hf
  Hf29     1.0000 0.95833  0.95833  0.22335  Biso   1.000  Hf
  Hf30     1.0000 0.45833  0.45833  0.31623  Biso   1.000  Hf
  Hf31     1.0000 0.45833  0.95833  0.31623  Biso   1.000  Hf
  Hf32     1.0000 0.95833  0.45833  0.31623  Biso   1.000  Hf
  Hf33     1.0000 0.95833  0.95833  0.31623  Biso   1.000  Hf
  Hf34     1.0000 0.45833  0.45833  0.40911  Biso   1.000  Hf
  Hf35     1.0000 0.45833  0.95833  0.40911  Biso   1.000  Hf
  Hf36     1.0000 0.95833  0.45833  0.40911  Biso   1.000  Hf
  Hf37     1.0000 0.95833  0.95833  0.40911  Biso   1.000  Hf
  Hf38     1.0000 0.45833  0.70833  0.17692  Biso   1.000  Hf
  Hf39     1.0000 0.95833  0.20833  0.17692  Biso   1.000  Hf
  Hf40     1.0000 0.95833  0.70833  0.17692  Biso   1.000  Hf
  Hf41     1.0000 0.45833  0.20833  0.26979  Biso   1.000  Hf
  Hf42     1.0000 0.45833  0.70833  0.26979  Biso   1.000  Hf
  Hf43     1.0000 0.95833  0.20833  0.26979  Biso   1.000  Hf
  Hf44     1.0000 0.45833  0.20833  0.36268  Biso   1.000  Hf
  Hf45     1.0000 0.45833  0.70833  0.36268  Biso   1.000  Hf
  Hf46     1.0000 0.95833  0.20833  0.36268  Biso   1.000  Hf
  Hf47     1.0000 0.20833  0.45833  0.17692  Biso   1.000  Hf
  Hf48     1.0000 0.45833  0.20833  0.17692  Biso   1.000  Hf
  N1       1.0000 0.47500  0.97500  0.50238  Biso   1.000  N 
  N2       1.0000 0.77500  0.37500  0.79693  Biso   1.000  N 
  N3       1.0000 0.77500  0.87500  0.50238  Biso   1.000  N 
  N4       1.0000 0.57500  0.27500  0.50238  Biso   1.000  N 
  N5       1.0000 0.37500  0.67500  0.50238  Biso   1.000  N 
  N6       1.0000 0.17500  0.07500  0.58653  Biso   1.000  N 
  N7       1.0000 0.97500  0.47500  0.58653  Biso   1.000  N 
  N8       1.0000 0.77500  0.87500  0.58653  Biso   1.000  N 
  N9       1.0000 0.57500  0.27500  0.58653  Biso   1.000  N 
  N10      1.0000 0.37500  0.67500  0.58653  Biso   1.000  N 
  N11      1.0000 0.17500  0.07500  0.67069  Biso   1.000  N 
  N12      1.0000 0.97500  0.47500  0.67069  Biso   1.000  N 
  N13      1.0000 0.77500  0.87500  0.67069  Biso   1.000  N 
  N14      1.0000 0.57500  0.27500  0.67069  Biso   1.000  N 
  N15      1.0000 0.37500  0.67500  0.67069  Biso   1.000  N 
  N16      1.0000 0.17500  0.07500  0.75485  Biso   1.000  N 
  N17      1.0000 0.97500  0.47500  0.75485  Biso   1.000  N 
  N18      1.0000 0.77500  0.87500  0.75485  Biso   1.000  N 
  N19      1.0000 0.57500  0.27500  0.75485  Biso   1.000  N 
  N20      1.0000 0.37500  0.67500  0.75485  Biso   1.000  N 
  N21      1.0000 0.17500  0.07500  0.83901  Biso   1.000  N 
  N22      1.0000 0.97500  0.47500  0.83901  Biso   1.000  N 
  N23      1.0000 0.77500  0.87500  0.83901  Biso   1.000  N 
  N24      1.0000 0.97500  0.47500  0.50238  Biso   1.000  N 
  N25      1.0000 0.17500  0.07500  0.50238  Biso   1.000  N 
  N26      1.0000 0.67500  0.57500  0.83901  Biso   1.000  N 
  N27      1.0000 0.87500  0.17500  0.83901  Biso   1.000  N 
  N28      1.0000 0.27500  0.37500  0.50238  Biso   1.000  N 
  N29      1.0000 0.57500  0.77500  0.79693  Biso   1.000  N 
  N30      1.0000 0.87500  0.17500  0.50238  Biso   1.000  N 
  N31      1.0000 0.67500  0.57500  0.50238  Biso   1.000  N 
  N32      1.0000 0.47500  0.97500  0.58653  Biso   1.000  N 
  N33      1.0000 0.27500  0.37500  0.58653  Biso   1.000  N 
  N34      1.0000 0.07500  0.77500  0.58653  Biso   1.000  N 
  N35      1.0000 0.87500  0.17500  0.58653  Biso   1.000  N 
  N36      1.0000 0.67500  0.57500  0.58653  Biso   1.000  N 
  N37      1.0000 0.47500  0.97500  0.67069  Biso   1.000  N 
  N38      1.0000 0.57500  0.27500  0.83901  Biso   1.000  N 
  N39      1.0000 0.27500  0.37500  0.67069  Biso   1.000  N 
  N40      1.0000 0.87500  0.17500  0.67069  Biso   1.000  N 
  N41      1.0000 0.67500  0.57500  0.67069  Biso   1.000  N 
  N42      1.0000 0.47500  0.97500  0.75485  Biso   1.000  N 
  N43      1.0000 0.27500  0.37500  0.75485  Biso   1.000  N 
  N44      1.0000 0.07500  0.77500  0.75485  Biso   1.000  N 
  N45      1.0000 0.87500  0.17500  0.75485  Biso   1.000  N 
  N46      1.0000 0.67500  0.57500  0.75485  Biso   1.000  N 
  N47      1.0000 0.47500  0.97500  0.83901  Biso   1.000  N 
  N48      1.0000 0.27500  0.37500  0.83901  Biso   1.000  N 
  N49      1.0000 0.07500  0.77500  0.83901  Biso   1.000  N 
  N50      1.0000 0.07500  0.77500  0.67069  Biso   1.000  N 
  N51      1.0000 0.37500  0.67500  0.83901  Biso   1.000  N 
  N52      1.0000 0.07500  0.77500  0.50238  Biso   1.000  N 
  N53      1.0000 0.07500  0.27500  0.46030  Biso   1.000  N 
  N54      1.0000 0.97500  0.97500  0.46030  Biso   1.000  N 
  N55      1.0000 0.77500  0.37500  0.46030  Biso   1.000  N 
  N56      1.0000 0.57500  0.77500  0.46030  Biso   1.000  N 
  N57      1.0000 0.37500  0.17500  0.54446  Biso   1.000  N 
  N58      1.0000 0.17500  0.57500  0.54446  Biso   1.000  N 
  N59      1.0000 0.97500  0.97500  0.54446  Biso   1.000  N 
  N60      1.0000 0.77500  0.37500  0.54446  Biso   1.000  N 
  N61      1.0000 0.57500  0.77500  0.54446  Biso   1.000  N 
  N62      1.0000 0.37500  0.17500  0.62861  Biso   1.000  N 
  N63      1.0000 0.17500  0.57500  0.62861  Biso   1.000  N 
  N64      1.0000 0.97500  0.97500  0.62861  Biso   1.000  N 
  N65      1.0000 0.77500  0.37500  0.62861  Biso   1.000  N 
  N66      1.0000 0.57500  0.77500  0.62861  Biso   1.000  N 
  N67      1.0000 0.37500  0.17500  0.71277  Biso   1.000  N 
  N68      1.0000 0.17500  0.57500  0.71277  Biso   1.000  N 
  N69      1.0000 0.97500  0.97500  0.71277  Biso   1.000  N 
  N70      1.0000 0.77500  0.37500  0.71277  Biso   1.000  N 
  N71      1.0000 0.57500  0.77500  0.71277  Biso   1.000  N 
  N72      1.0000 0.37500  0.17500  0.79693  Biso   1.000  N 
  N73      1.0000 0.17500  0.57500  0.79693  Biso   1.000  N 
  N74      1.0000 0.27500  0.87500  0.46030  Biso   1.000  N 
  N75      1.0000 0.17500  0.57500  0.46030  Biso   1.000  N 
  N76      1.0000 0.37500  0.17500  0.46030  Biso   1.000  N 
  N77      1.0000 0.97500  0.97500  0.79693  Biso   1.000  N 
  N78      1.0000 0.67500  0.07500  0.79693  Biso   1.000  N 
  N79      1.0000 0.87500  0.67500  0.46030  Biso   1.000  N 
  N80      1.0000 0.67500  0.07500  0.46030  Biso   1.000  N 
  N81      1.0000 0.47500  0.47500  0.46030  Biso   1.000  N 
  N82      1.0000 0.27500  0.87500  0.54446  Biso   1.000  N 
  N83      1.0000 0.07500  0.27500  0.54446  Biso   1.000  N 
  N84      1.0000 0.87500  0.67500  0.54446  Biso   1.000  N 
  N85      1.0000 0.67500  0.07500  0.54446  Biso   1.000  N 
  N86      1.0000 0.47500  0.47500  0.79693  Biso   1.000  N 
  N87      1.0000 0.27500  0.87500  0.62861  Biso   1.000  N 
  N88      1.0000 0.07500  0.27500  0.62861  Biso   1.000  N 
  N89      1.0000 0.87500  0.67500  0.62861  Biso   1.000  N 
  N90      1.0000 0.47500  0.47500  0.54446  Biso   1.000  N 
  N91      1.0000 0.47500  0.47500  0.62861  Biso   1.000  N 
  N92      1.0000 0.27500  0.87500  0.71277  Biso   1.000  N 
  N93      1.0000 0.07500  0.27500  0.71277  Biso   1.000  N 
  N94      1.0000 0.87500  0.67500  0.71277  Biso   1.000  N 
  N95      1.0000 0.67500  0.07500  0.71277  Biso   1.000  N 
  N96      1.0000 0.47500  0.47500  0.71277  Biso   1.000  N 
  N97      1.0000 0.27500  0.87500  0.79693  Biso   1.000  N 
  N98      1.0000 0.07500  0.27500  0.79693  Biso   1.000  N 
  N99      1.0000 0.87500  0.67500  0.79693  Biso   1.000  N 
  N100     1.0000 0.67500  0.07500  0.62861  Biso   1.000  N 
  O1       1.0000 0.58333  0.08333  0.20013  Biso   1.000  O 
  O2       1.0000 0.58333  0.58333  0.20013  Biso   1.000  O 
  O3       1.0000 0.08333  0.08333  0.29301  Biso   1.000  O 
  O4       1.0000 0.08333  0.58333  0.38589  Biso   1.000  O 
  O5       1.0000 0.58333  0.08333  0.29301  Biso   1.000  O 
  O6       1.0000 0.58333  0.58333  0.29301  Biso   1.000  O 
  O7       1.0000 0.08333  0.08333  0.38589  Biso   1.000  O 
  O8       1.0000 0.08333  0.58333  0.29301  Biso   1.000  O 
  O9       1.0000 0.08333  0.58333  0.20013  Biso   1.000  O 
  O10      1.0000 0.83333  0.33333  0.20013  Biso   1.000  O 
  O11      1.0000 0.83333  0.83333  0.38589  Biso   1.000  O 
  O12      1.0000 0.83333  0.33333  0.38589  Biso   1.000  O 
  O13      1.0000 0.33333  0.83333  0.38589  Biso   1.000  O 
  O14      1.0000 0.33333  0.33333  0.38589  Biso   1.000  O 
  O15      1.0000 0.83333  0.83333  0.29301  Biso   1.000  O 
  O16      1.0000 0.83333  0.33333  0.29301  Biso   1.000  O 
  O17      1.0000 0.33333  0.83333  0.29301  Biso   1.000  O 
  O18      1.0000 0.33333  0.33333  0.29301  Biso   1.000  O 
  O19      1.0000 0.83333  0.83333  0.20013  Biso   1.000  O 
  O20      1.0000 0.33333  0.83333  0.20013  Biso   1.000  O 
  O21      1.0000 0.08333  0.08333  0.20013  Biso   1.000  O 
  O22      1.0000 0.58333  0.08333  0.38589  Biso   1.000  O 
  O23      1.0000 0.08333  0.83333  0.33945  Biso   1.000  O 
  O24      1.0000 0.08333  0.33333  0.15369  Biso   1.000  O 
  O25      1.0000 0.33333  0.58333  0.33945  Biso   1.000  O 
  O26      1.0000 0.33333  0.33333  0.20013  Biso   1.000  O 
  O27      1.0000 0.33333  0.08333  0.33945  Biso   1.000  O 
  O28      1.0000 0.83333  0.58333  0.24658  Biso   1.000  O 
  O29      1.0000 0.83333  0.08333  0.24658  Biso   1.000  O 
  O30      1.0000 0.33333  0.58333  0.24658  Biso   1.000  O 
  O31      1.0000 0.33333  0.08333  0.24658  Biso   1.000  O 
  O32      1.0000 0.83333  0.58333  0.15369  Biso   1.000  O 
  O33      1.0000 0.83333  0.08333  0.15369  Biso   1.000  O 
  O34      1.0000 0.33333  0.58333  0.15369  Biso   1.000  O 
  O35      1.0000 0.33333  0.08333  0.15369  Biso   1.000  O 
  O36      1.0000 0.58333  0.83333  0.33945  Biso   1.000  O 
  O37      1.0000 0.58333  0.33333  0.33945  Biso   1.000  O 
  O38      1.0000 0.08333  0.33333  0.33945  Biso   1.000  O 
  O39      1.0000 0.58333  0.83333  0.24658  Biso   1.000  O 
  O40      1.0000 0.58333  0.33333  0.24658  Biso   1.000  O 
  O41      1.0000 0.08333  0.83333  0.24658  Biso   1.000  O 
  O42      1.0000 0.08333  0.33333  0.24658  Biso   1.000  O 
  O43      1.0000 0.58333  0.83333  0.15369  Biso   1.000  O 
  O44      1.0000 0.58333  0.33333  0.15369  Biso   1.000  O 
  O45      1.0000 0.08333  0.83333  0.15369  Biso   1.000  O 
  O46      1.0000 0.58333  0.58333  0.38589  Biso   1.000  O 
  O47      1.0000 0.83333  0.58333  0.38589  Biso   1.000  O 
  O48      1.0000 0.58333  0.58333  0.33945  Biso   1.000  O 
  O49      1.0000 0.33333  0.58333  0.38589  Biso   1.000  O 
  O50      1.0000 0.58333  0.08333  0.24658  Biso   1.000  O 
  O51      1.0000 0.08333  0.58333  0.24658  Biso   1.000  O 
  O52      1.0000 0.08333  0.08333  0.24658  Biso   1.000  O 
  O53      1.0000 0.58333  0.58333  0.15369  Biso   1.000  O 
  O54      1.0000 0.58333  0.08333  0.15369  Biso   1.000  O 
  O55      1.0000 0.08333  0.58333  0.15369  Biso   1.000  O 
  O56      1.0000 0.08333  0.08333  0.15369  Biso   1.000  O 
  O57      1.0000 0.83333  0.83333  0.33945  Biso   1.000  O 
  O58      1.0000 0.83333  0.33333  0.33945  Biso   1.000  O 
  O59      1.0000 0.58333  0.58333  0.24658  Biso   1.000  O 
  O60      1.0000 0.33333  0.83333  0.33945  Biso   1.000  O 
  O61      1.0000 0.83333  0.83333  0.24658  Biso   1.000  O 
  O62      1.0000 0.83333  0.33333  0.24658  Biso   1.000  O 
  O63      1.0000 0.33333  0.83333  0.24658  Biso   1.000  O 
  O64      1.0000 0.33333  0.33333  0.24658  Biso   1.000  O 
  O65      1.0000 0.83333  0.83333  0.15369  Biso   1.000  O 
  O66      1.0000 0.83333  0.33333  0.15369  Biso   1.000  O 
  O67      1.0000 0.33333  0.83333  0.15369  Biso   1.000  O 
  O68      1.0000 0.33333  0.33333  0.15369  Biso   1.000  O 
  O69      1.0000 0.83333  0.08333  0.33945  Biso   1.000  O 
  O70      1.0000 0.33333  0.33333  0.33945  Biso   1.000  O 
  O71      1.0000 0.08333  0.08333  0.33945  Biso   1.000  O 
  O72      1.0000 0.08333  0.58333  0.33945  Biso   1.000  O 
  O73      1.0000 0.58333  0.08333  0.33945  Biso   1.000  O 
  O74      1.0000 0.33333  0.08333  0.38589  Biso   1.000  O 
  O75      1.0000 0.83333  0.58333  0.29301  Biso   1.000  O 
  O76      1.0000 0.83333  0.08333  0.29301  Biso   1.000  O 
  O77      1.0000 0.33333  0.58333  0.29301  Biso   1.000  O 
  O78      1.0000 0.33333  0.08333  0.29301  Biso   1.000  O 
  O79      1.0000 0.83333  0.58333  0.20013  Biso   1.000  O 
  O80      1.0000 0.83333  0.08333  0.20013  Biso   1.000  O 
  O81      1.0000 0.33333  0.58333  0.20013  Biso   1.000  O 
  O82      1.0000 0.33333  0.08333  0.20013  Biso   1.000  O 
  O83      1.0000 0.58333  0.83333  0.38589  Biso   1.000  O 
  O84      1.0000 0.58333  0.33333  0.38589  Biso   1.000  O 
  O85      1.0000 0.08333  0.83333  0.38589  Biso   1.000  O 
  O86      1.0000 0.08333  0.33333  0.38589  Biso   1.000  O 
  O87      1.0000 0.58333  0.83333  0.29301  Biso   1.000  O 
  O88      1.0000 0.58333  0.33333  0.29301  Biso   1.000  O 
  O89      1.0000 0.08333  0.83333  0.29301  Biso   1.000  O 
  O90      1.0000 0.08333  0.33333  0.29301  Biso   1.000  O 
  O91      1.0000 0.58333  0.83333  0.20013  Biso   1.000  O 
  O92      1.0000 0.58333  0.33333  0.20013  Biso   1.000  O 
  O93      1.0000 0.08333  0.83333  0.20013  Biso   1.000  O 
  O94      1.0000 0.08333  0.33333  0.20013  Biso   1.000  O 
  O95      1.0000 0.83333  0.08333  0.38589  Biso   1.000  O 
  O96      1.0000 0.83333  0.58333  0.33945  Biso   1.000  O 
