data_image0
_cell_length_a       4.588
_cell_length_b       4.588
_cell_length_c       62.563
_cell_angle_alpha    90
_cell_angle_beta     90
_cell_angle_gamma    90

_symmetry_space_group_name_H-M    "P 1"
_symmetry_int_tables_number       1

loop_
  _symmetry_equiv_pos_as_xyz
  'x, y, z'

loop_
  _atom_site_label
  _atom_site_occupancy
  _atom_site_fract_x
  _atom_site_fract_y
  _atom_site_fract_z
  _atom_site_thermal_displace_type
  _atom_site_B_iso_or_equiv
  _atom_site_type_symbol
  Ga1      1.0000 0.87500  0.87500  0.83548  Biso   1.000  Ga
  Ga2      1.0000 0.87500  0.37500  0.72554  Biso   1.000  Ga
  Ga3      1.0000 0.87500  0.37500  0.79883  Biso   1.000  Ga
  Ga4      1.0000 0.87500  0.37500  0.87213  Biso   1.000  Ga
  Ga5      1.0000 0.87500  0.87500  0.54230  Biso   1.000  Ga
  Ga6      1.0000 0.87500  0.87500  0.61560  Biso   1.000  Ga
  Ga7      1.0000 0.87500  0.87500  0.68889  Biso   1.000  Ga
  Ga8      1.0000 0.87500  0.87500  0.76218  Biso   1.000  Ga
  Ga9      1.0000 0.87500  0.87500  0.36608  Biso   1.000  Ga
  Ga10     1.0000 0.37500  0.37500  0.14619  Biso   1.000  Ga
  Ga11     1.0000 0.37500  0.37500  0.21949  Biso   1.000  Ga
  Ga12     1.0000 0.37500  0.37500  0.29279  Biso   1.000  Ga
  Ga13     1.0000 0.37500  0.37500  0.36608  Biso   1.000  Ga
  Ga14     1.0000 0.87500  0.37500  0.65224  Biso   1.000  Ga
  Ga15     1.0000 0.37500  0.37500  0.43938  Biso   1.000  Ga
  Ga16     1.0000 0.37500  0.87500  0.25614  Biso   1.000  Ga
  Ga17     1.0000 0.37500  0.87500  0.32944  Biso   1.000  Ga
  Ga18     1.0000 0.37500  0.87500  0.40273  Biso   1.000  Ga
  Ga19     1.0000 0.37500  0.87500  0.47602  Biso   1.000  Ga
  Ga20     1.0000 0.87500  0.37500  0.18284  Biso   1.000  Ga
  Ga21     1.0000 0.87500  0.37500  0.25614  Biso   1.000  Ga
  Ga22     1.0000 0.87500  0.37500  0.32944  Biso   1.000  Ga
  Ga23     1.0000 0.87500  0.37500  0.40273  Biso   1.000  Ga
  Ga24     1.0000 0.87500  0.37500  0.47602  Biso   1.000  Ga
  Ga25     1.0000 0.87500  0.87500  0.14619  Biso   1.000  Ga
  Ga26     1.0000 0.87500  0.87500  0.21949  Biso   1.000  Ga
  Ga27     1.0000 0.87500  0.87500  0.29279  Biso   1.000  Ga
  Ga28     1.0000 0.37500  0.87500  0.18284  Biso   1.000  Ga
  Ga29     1.0000 0.87500  0.37500  0.57895  Biso   1.000  Ga
  Ga30     1.0000 0.87500  0.87500  0.43938  Biso   1.000  Ga
  Ga31     1.0000 0.37500  0.87500  0.79883  Biso   1.000  Ga
  Ga32     1.0000 0.37500  0.87500  0.87213  Biso   1.000  Ga
  Ga33     1.0000 0.37500  0.37500  0.61560  Biso   1.000  Ga
  Ga34     1.0000 0.37500  0.37500  0.68889  Biso   1.000  Ga
  Ga35     1.0000 0.37500  0.37500  0.76218  Biso   1.000  Ga
  Ga36     1.0000 0.37500  0.37500  0.54230  Biso   1.000  Ga
  Ga37     1.0000 0.37500  0.87500  0.57895  Biso   1.000  Ga
  Ga38     1.0000 0.37500  0.87500  0.65224  Biso   1.000  Ga
  Ga39     1.0000 0.37500  0.87500  0.72554  Biso   1.000  Ga
  Ga40     1.0000 0.37500  0.37500  0.83548  Biso   1.000  Ga
  N1       1.0000 0.62500  0.12500  0.59727  Biso   1.000  N 
  N2       1.0000 0.12500  0.62500  0.67056  Biso   1.000  N 
  N3       1.0000 0.12500  0.62500  0.59727  Biso   1.000  N 
  N4       1.0000 0.12500  0.62500  0.52398  Biso   1.000  N 
  N5       1.0000 0.62500  0.12500  0.81716  Biso   1.000  N 
  N6       1.0000 0.62500  0.12500  0.74386  Biso   1.000  N 
  N7       1.0000 0.62500  0.12500  0.67056  Biso   1.000  N 
  N8       1.0000 0.62500  0.12500  0.52398  Biso   1.000  N 
  N9       1.0000 0.62500  0.62500  0.63392  Biso   1.000  N 
  N10      1.0000 0.62500  0.62500  0.78051  Biso   1.000  N 
  N11      1.0000 0.62500  0.62500  0.70721  Biso   1.000  N 
  N12      1.0000 0.12500  0.62500  0.74386  Biso   1.000  N 
  N13      1.0000 0.62500  0.62500  0.56063  Biso   1.000  N 
  N14      1.0000 0.12500  0.12500  0.85380  Biso   1.000  N 
  N15      1.0000 0.12500  0.12500  0.78051  Biso   1.000  N 
  N16      1.0000 0.12500  0.12500  0.70721  Biso   1.000  N 
  N17      1.0000 0.12500  0.12500  0.63392  Biso   1.000  N 
  N18      1.0000 0.62500  0.62500  0.85380  Biso   1.000  N 
  N19      1.0000 0.12500  0.62500  0.42106  Biso   1.000  N 
  N20      1.0000 0.62500  0.12500  0.42106  Biso   1.000  N 
  N21      1.0000 0.12500  0.62500  0.27446  Biso   1.000  N 
  N22      1.0000 0.12500  0.62500  0.81716  Biso   1.000  N 
  N23      1.0000 0.12500  0.12500  0.16452  Biso   1.000  N 
  N24      1.0000 0.12500  0.12500  0.23781  Biso   1.000  N 
  N25      1.0000 0.12500  0.12500  0.31111  Biso   1.000  N 
  N26      1.0000 0.12500  0.12500  0.38441  Biso   1.000  N 
  N27      1.0000 0.12500  0.12500  0.45770  Biso   1.000  N 
  N28      1.0000 0.62500  0.62500  0.16452  Biso   1.000  N 
  N29      1.0000 0.62500  0.62500  0.23781  Biso   1.000  N 
  N30      1.0000 0.62500  0.62500  0.31111  Biso   1.000  N 
  N31      1.0000 0.62500  0.62500  0.38441  Biso   1.000  N 
  N32      1.0000 0.62500  0.62500  0.45770  Biso   1.000  N 
  N33      1.0000 0.62500  0.12500  0.12787  Biso   1.000  N 
  N34      1.0000 0.62500  0.12500  0.20117  Biso   1.000  N 
  N35      1.0000 0.62500  0.12500  0.27446  Biso   1.000  N 
  N36      1.0000 0.62500  0.12500  0.34776  Biso   1.000  N 
  N37      1.0000 0.12500  0.62500  0.12787  Biso   1.000  N 
  N38      1.0000 0.12500  0.62500  0.20117  Biso   1.000  N 
  N39      1.0000 0.12500  0.62500  0.34776  Biso   1.000  N 
  N40      1.0000 0.12500  0.12500  0.56063  Biso   1.000  N 
