data_image0
_cell_length_a       14.431
_cell_length_b       6.237
_cell_length_c       47.9269
_cell_angle_alpha    90
_cell_angle_beta     90
_cell_angle_gamma    90

_symmetry_space_group_name_H-M    "P 1"
_symmetry_int_tables_number       1

loop_
  _symmetry_equiv_pos_as_xyz
  'x, y, z'

loop_
  _atom_site_label
  _atom_site_occupancy
  _atom_site_fract_x
  _atom_site_fract_y
  _atom_site_fract_z
  _atom_site_thermal_displace_type
  _atom_site_B_iso_or_equiv
  _atom_site_type_symbol
  Nb1      1.0000 0.06250  0.56250  0.40159  Biso   1.000  Nb
  Nb2      1.0000 0.56250  0.06250  0.40159  Biso   1.000  Nb
  Nb3      1.0000 0.06250  0.56250  0.30449  Biso   1.000  Nb
  Nb4      1.0000 0.56250  0.06250  0.30449  Biso   1.000  Nb
  Nb5      1.0000 0.56250  0.56250  0.31980  Biso   1.000  Nb
  Nb6      1.0000 0.06250  0.06250  0.31980  Biso   1.000  Nb
  Nb7      1.0000 0.56250  0.56250  0.38628  Biso   1.000  Nb
  Nb8      1.0000 0.06250  0.06250  0.38628  Biso   1.000  Nb
  Co1      1.0000 0.00380  0.70980  0.35304  Biso   1.000  Co
  Co2      1.0000 0.12120  0.41520  0.35304  Biso   1.000  Co
  Co3      1.0000 0.62120  0.20980  0.35304  Biso   1.000  Co
  Co4      1.0000 0.50380  0.91520  0.35304  Biso   1.000  Co
  Co5      1.0000 0.50380  0.70980  0.27125  Biso   1.000  Co
  Co6      1.0000 0.62120  0.41520  0.27125  Biso   1.000  Co
  Co7      1.0000 0.12120  0.20980  0.27125  Biso   1.000  Co
  Co8      1.0000 0.00380  0.91520  0.27125  Biso   1.000  Co
  Te1      1.0000 0.90180  0.81250  0.39393  Biso   1.000  Te
  Te2      1.0000 0.22320  0.31250  0.39393  Biso   1.000  Te
  Te3      1.0000 0.72320  0.31250  0.39393  Biso   1.000  Te
  Te4      1.0000 0.40180  0.81250  0.39393  Biso   1.000  Te
  Te5      1.0000 0.22320  0.31250  0.31214  Biso   1.000  Te
  Te6      1.0000 0.90180  0.81250  0.31214  Biso   1.000  Te
  Te7      1.0000 0.40180  0.81250  0.31214  Biso   1.000  Te
  Te8      1.0000 0.72320  0.31250  0.31214  Biso   1.000  Te
  Te9      1.0000 0.17520  0.81430  0.27125  Biso   1.000  Te
  Te10     1.0000 0.94980  0.31070  0.27125  Biso   1.000  Te
  Te11     1.0000 0.44980  0.31430  0.27125  Biso   1.000  Te
  Te12     1.0000 0.67520  0.81070  0.27125  Biso   1.000  Te
  Te13     1.0000 0.67520  0.81430  0.35304  Biso   1.000  Te
  Te14     1.0000 0.44980  0.31070  0.35304  Biso   1.000  Te
  Te15     1.0000 0.94980  0.31430  0.35304  Biso   1.000  Te
  Te16     1.0000 0.17520  0.81070  0.35304  Biso   1.000  Te
  Nb9      1.0000 0.06250  0.56250  0.56517  Biso   1.000  Nb
  Nb10     1.0000 0.56250  0.06250  0.56517  Biso   1.000  Nb
  Nb11     1.0000 0.06250  0.56250  0.46807  Biso   1.000  Nb
  Nb12     1.0000 0.56250  0.06250  0.46807  Biso   1.000  Nb
  Nb13     1.0000 0.56250  0.56250  0.48338  Biso   1.000  Nb
  Nb14     1.0000 0.06250  0.06250  0.48338  Biso   1.000  Nb
  Nb15     1.0000 0.56250  0.56250  0.54986  Biso   1.000  Nb
  Nb16     1.0000 0.06250  0.06250  0.54986  Biso   1.000  Nb
  Co9      1.0000 0.00380  0.70980  0.51662  Biso   1.000  Co
  Co10     1.0000 0.12120  0.41520  0.51662  Biso   1.000  Co
  Co11     1.0000 0.62120  0.20980  0.51662  Biso   1.000  Co
  Co12     1.0000 0.50380  0.91520  0.51662  Biso   1.000  Co
  Co13     1.0000 0.50380  0.70980  0.43483  Biso   1.000  Co
  Co14     1.0000 0.62120  0.41520  0.43483  Biso   1.000  Co
  Co15     1.0000 0.12120  0.20980  0.43483  Biso   1.000  Co
  Co16     1.0000 0.00380  0.91520  0.43483  Biso   1.000  Co
  Te17     1.0000 0.90180  0.81250  0.55752  Biso   1.000  Te
  Te18     1.0000 0.22320  0.31250  0.55752  Biso   1.000  Te
  Te19     1.0000 0.72320  0.31250  0.55752  Biso   1.000  Te
  Te20     1.0000 0.40180  0.81250  0.55752  Biso   1.000  Te
  Te21     1.0000 0.22320  0.31250  0.47572  Biso   1.000  Te
  Te22     1.0000 0.90180  0.81250  0.47572  Biso   1.000  Te
  Te23     1.0000 0.40180  0.81250  0.47572  Biso   1.000  Te
  Te24     1.0000 0.72320  0.31250  0.47572  Biso   1.000  Te
  Te25     1.0000 0.17520  0.81430  0.43483  Biso   1.000  Te
  Te26     1.0000 0.94980  0.31070  0.43483  Biso   1.000  Te
  Te27     1.0000 0.44980  0.31430  0.43483  Biso   1.000  Te
  Te28     1.0000 0.67520  0.81070  0.43483  Biso   1.000  Te
  Te29     1.0000 0.67520  0.81430  0.51662  Biso   1.000  Te
  Te30     1.0000 0.44980  0.31070  0.51662  Biso   1.000  Te
  Te31     1.0000 0.94980  0.31430  0.51662  Biso   1.000  Te
  Te32     1.0000 0.17520  0.81070  0.51662  Biso   1.000  Te
  Nb17     1.0000 0.06250  0.56250  0.72875  Biso   1.000  Nb
  Nb18     1.0000 0.56250  0.06250  0.72875  Biso   1.000  Nb
  Nb19     1.0000 0.06250  0.56250  0.63165  Biso   1.000  Nb
  Nb20     1.0000 0.56250  0.06250  0.63165  Biso   1.000  Nb
  Nb21     1.0000 0.56250  0.56250  0.64696  Biso   1.000  Nb
  Nb22     1.0000 0.06250  0.06250  0.64696  Biso   1.000  Nb
  Nb23     1.0000 0.56250  0.56250  0.71344  Biso   1.000  Nb
  Nb24     1.0000 0.06250  0.06250  0.71344  Biso   1.000  Nb
  Co17     1.0000 0.00380  0.70980  0.68020  Biso   1.000  Co
  Co18     1.0000 0.12120  0.41520  0.68020  Biso   1.000  Co
  Co19     1.0000 0.62120  0.20980  0.68020  Biso   1.000  Co
  Co20     1.0000 0.50380  0.91520  0.68020  Biso   1.000  Co
  Co21     1.0000 0.50380  0.70980  0.59841  Biso   1.000  Co
  Co22     1.0000 0.62120  0.41520  0.59841  Biso   1.000  Co
  Co23     1.0000 0.12120  0.20980  0.59841  Biso   1.000  Co
  Co24     1.0000 0.00380  0.91520  0.59841  Biso   1.000  Co
  Te33     1.0000 0.90180  0.81250  0.72110  Biso   1.000  Te
  Te34     1.0000 0.22320  0.31250  0.72110  Biso   1.000  Te
  Te35     1.0000 0.72320  0.31250  0.72110  Biso   1.000  Te
  Te36     1.0000 0.40180  0.81250  0.72110  Biso   1.000  Te
  Te37     1.0000 0.22320  0.31250  0.63931  Biso   1.000  Te
  Te38     1.0000 0.90180  0.81250  0.63931  Biso   1.000  Te
  Te39     1.0000 0.40180  0.81250  0.63931  Biso   1.000  Te
  Te40     1.0000 0.72320  0.31250  0.63931  Biso   1.000  Te
  Te41     1.0000 0.17520  0.81430  0.59841  Biso   1.000  Te
  Te42     1.0000 0.94980  0.31070  0.59841  Biso   1.000  Te
  Te43     1.0000 0.44980  0.31430  0.59841  Biso   1.000  Te
  Te44     1.0000 0.67520  0.81070  0.59841  Biso   1.000  Te
  Te45     1.0000 0.67520  0.81430  0.68020  Biso   1.000  Te
  Te46     1.0000 0.44980  0.31070  0.68020  Biso   1.000  Te
  Te47     1.0000 0.94980  0.31430  0.68020  Biso   1.000  Te
  Te48     1.0000 0.17520  0.81070  0.68020  Biso   1.000  Te
